/*--------------------------------*- C++ -*----------------------------------*\
 | ========                 |                                                 |
 | \      /  F ield         | OpenFOAM: The Open Source CFD Toolbox           |
 |  \    /   O peration     | Version:  2.2.2                                 |
 |   \  /    A nd           | Web:      www.OpenFOAM.org                      |
 |    \/     M anipulation  | This file generated by e3post.py                |
\*---------------------------------------------------------------------------*/
FoamFile
{
    version     2.0;
    format      ascii;
    class       dictionary;
    object      createPatchDict;
}
// * * * * * * * * * * * * * * * * * * * * * * * * * * * * * * * * * * * * * //

pointSync false;
// Patches to create. 
patches 
(
    {
        name OF_wall_02;
        patchInfo
        {
            type wall;
        }
        constructFrom patches;
        patches ( w0005);
    }
);

// ************************************************************************* //
